test/data/nordic_fault/br33,27,31,32/interfaces.csv
index,subnet_index,bus,imax,vmax,c1,c2,c3,sw1,sw2,sw3,M,smax,R,X,G,B,transformer,tap,shift
1,1,4032,40,1.1,0.0001,0.0001,0.0001,0.0001,0.0001,0.0001,0.9,50,1.00E-05,0.001,0,0.0001,FALSE,1,0
2,1,4042,40,1.1,0.0001,0.0001,0.0001,0.0001,0.0001,0.0001,0.9,50,1.00E-05,0.001,0,0.0001,FALSE,1,0
1,2,1,40,1.1,0.0001,0.0001,0.0001,0.0001,0.0001,0.0001,0.9,50,1.00E-05,0.001,0,0.0001,FALSE,1,0
2,2,2,40,1.1,0.0001,0.0001,0.0001,0.0001,0.0001,0.0001,0.9,50,1.00E-05,0.001,0,0.0001,FALSE,1,0
3,1,4021,40,1.1,0.0001,0.0001,0.0001,0.0001,0.0001,0.0001,0.9,50,1.00E-05,0.001,0,0.0001,FALSE,1,0
4,1,4042,40,1.1,0.0001,0.0001,0.0001,0.0001,0.0001,0.0001,0.9,50,1.00E-05,0.001,0,0.0001,FALSE,1,0
3,3,1,40,1.1,0.0001,0.0001,0.0001,0.0001,0.0001,0.0001,0.9,50,1.00E-05,0.001,0,0.0001,FALSE,1,0
4,3,2,40,1.1,0.0001,0.0001,0.0001,0.0001,0.0001,0.0001,0.9,50,1.00E-05,0.001,0,0.0001,FALSE,1,0
5,1,4031,40,1.1,0.0001,0.0001,0.0001,0.0001,0.0001,0.0001,0.9,50,1.00E-05,0.001,0,0.0001,FALSE,1,0
6,1,4041,40,1.1,0.0001,0.0001,0.0001,0.0001,0.0001,0.0001,0.9,50,1.00E-05,0.001,0,0.0001,FALSE,1,0
5,4,1,40,1.1,0.0001,0.0001,0.0001,0.0001,0.0001,0.0001,0.9,50,1.00E-05,0.001,0,0.0001,FALSE,1,0
6,4,2,40,1.1,0.0001,0.0001,0.0001,0.0001,0.0001,0.0001,0.9,50,1.00E-05,0.001,0,0.0001,FALSE,1,0
7,1,4031,40,1.1,0.0001,0.0001,0.0001,0.0001,0.0001,0.0001,0.9,50,1.00E-05,0.001,0,0.0001,FALSE,1,0
8,1,4041,40,1.1,0.0001,0.0001,0.0001,0.0001,0.0001,0.0001,0.9,50,1.00E-05,0.001,0,0.0001,FALSE,1,0
7,5,1,40,1.1,0.0001,0.0001,0.0001,0.0001,0.0001,0.0001,0.9,50,1.00E-05,0.001,0,0.0001,FALSE,1,0
8,5,2,40,1.1,0.0001,0.0001,0.0001,0.0001,0.0001,0.0001,0.9,50,1.00E-05,0.001,0,0.0001,FALSE,1,0
